Version 4
SHEET 1 880 680
FLAG 128 192 0
FLAG 128 112 Out
SYMBOL voltage 128 96 R0
SYMATTR InstName V1
SYMATTR Value {V}
