Version 4
SHEET 1 880 680
FLAG 192 96 A
FLAG 192 176 B
FLAG 240 112 CTRL
FLAG 240 240 0
SYMBOL sw 192 192 R180
SYMATTR InstName S1
SYMBOL voltage 240 144 R0
SYMATTR InstName V1
SYMATTR Value {Threshold}
